Circuit: * C:\Users\thollis\OneDrive - TRC\Documents\Microphone Amplifier\Microphone_Amplifier\Amplifier Circuit.asc

Direct Newton iteration for .op point succeeded.

Date: Fri Mar 25 18:18:26 2022
Total elapsed time: 0.075 seconds.

tnom = 27
temp = 27
method = trap
totiter = 3
traniter = 0
tranpoints = 0
accept = 0
rejected = 0
matrix size = 12
fillins = 1
solver = Normal
Matrix Compiler1:      32 opcodes
Matrix Compiler2: 1006 bytes object code size
