Circuit: * C:\Users\thollis\OneDrive - TRC\Documents\Microphone Amplifier\Microphone_Amplifier\LTSpiceIV\Amplifier Circuit.asc

Direct Newton iteration for .op point succeeded.

Date: Sat Mar 26 16:15:30 2022
Total elapsed time: 0.082 seconds.

tnom = 27
temp = 27
method = modified trap
totiter = 2207
traniter = 2204
tranpoints = 1103
accept = 1059
rejected = 44
matrix size = 16
fillins = 6
solver = Normal
Matrix Compiler1: 848 bytes object code size  0.2/0.1/[0.1]
Matrix Compiler2: 1.48 KB object code size  0.1/0.2/[0.1]

